AMOSTRA/CSO/Trafos.dss
! ==========================================================
! TRANSFORMADORES DE DISTRIBUICAO — gerados de UNTRMT/EQTRMT
! Secundario 1F/2F: 3 enrolamentos com derivacao central
! Neutro no no 4, aterrado em _ATERRAMENTO.dss
! Kv de BT conforme TEN_LIN_SE da BDGD
! ==========================================================
New Transformer.2782534 phases=3 windings=2 Xhl=1.200
~ wdg=1 bus=16085-10862808.1.2.3 conn=delta Kv=13.8 Kva=75.0 %R=0.500
~ wdg=2 bus=2782534-10862809.1.2.3.4 conn=wye Kv=0.2200 Kva=75.0 %R=0.500
New Transformer.2782513 phases=3 windings=2 Xhl=1.200
~ wdg=1 bus=16085-10862810.1.2.3 conn=delta Kv=13.8 Kva=112.5 %R=0.500
~ wdg=2 bus=2782513-10862811.1.2.3.4 conn=wye Kv=0.2200 Kva=112.5 %R=0.500
New Transformer.2782493 phases=3 windings=2 Xhl=1.200
~ wdg=1 bus=16085-10862814.1.2.3 conn=delta Kv=13.8 Kva=112.5 %R=0.500
~ wdg=2 bus=2782493-10862815.1.2.3.4 conn=wye Kv=0.2200 Kva=112.5 %R=0.500
New Transformer.2782481 phases=3 windings=2 Xhl=1.200
~ wdg=1 bus=16085-10862816.1.2.3 conn=delta Kv=13.8 Kva=75.0 %R=0.500
~ wdg=2 bus=2782481-10862817.1.2.3.4 conn=wye Kv=0.2200 Kva=75.0 %R=0.500
New Transformer.2782480 phases=3 windings=2 Xhl=1.200
~ wdg=1 bus=16085-10862818.1.2.3 conn=delta Kv=13.8 Kva=75.0 %R=0.500
~ wdg=2 bus=2782480-10862819.1.2.3.4 conn=wye Kv=0.2200 Kva=75.0 %R=0.500
New Transformer.2782441 phases=3 windings=2 Xhl=1.200
~ wdg=1 bus=16085-10862857.1.2.3 conn=delta Kv=13.8 Kva=45.0 %R=0.500
~ wdg=2 bus=2782441-10862857v.1.2.3.4 conn=wye Kv=0.2200 Kva=45.0 %R=0.500
New Transformer.2782458 phases=3 windings=2 Xhl=1.200
~ wdg=1 bus=16085-10862892.1.2.3 conn=delta Kv=13.8 Kva=45.0 %R=0.500
~ wdg=2 bus=2782458-10862893.1.2.3.4 conn=wye Kv=0.2200 Kva=45.0 %R=0.500
New Transformer.2782472 phases=3 windings=2 Xhl=1.200
~ wdg=1 bus=16085-10862927.1.2.3 conn=delta Kv=13.8 Kva=15.0 %R=0.500
~ wdg=2 bus=2782472-10862927v.1.2.3.4 conn=wye Kv=0.2200 Kva=15.0 %R=0.500
New Transformer.2782503 phases=3 windings=2 Xhl=1.200
~ wdg=1 bus=16085-10862942.1.2.3 conn=delta Kv=13.8 Kva=112.5 %R=0.500
~ wdg=2 bus=2782503-10862943.1.2.3.4 conn=wye Kv=0.2200 Kva=112.5 %R=0.500
New Transformer.2782482 phases=3 windings=2 Xhl=1.200
~ wdg=1 bus=16085-10862991.1.2.3 conn=delta Kv=13.8 Kva=45.0 %R=0.500
~ wdg=2 bus=2782482-10862992.1.2.3.4 conn=wye Kv=0.2200 Kva=45.0 %R=0.500
New Transformer.2782522 phases=3 windings=2 Xhl=1.200
~ wdg=1 bus=16085-10863046.1.2.3 conn=delta Kv=13.8 Kva=112.5 %R=0.500
~ wdg=2 bus=2782522-10863046v.1.2.3.4 conn=wye Kv=0.2200 Kva=112.5 %R=0.500
New Transformer.2782520 phases=3 windings=2 Xhl=1.200
~ wdg=1 bus=16085-10863047.1.2.3 conn=delta Kv=13.8 Kva=112.5 %R=0.500
~ wdg=2 bus=2782520-10863047v.1.2.3.4 conn=wye Kv=0.2200 Kva=112.5 %R=0.500
New Transformer.2782456 phases=3 windings=2 Xhl=1.200
~ wdg=1 bus=16085-10863152.1.2.3 conn=delta Kv=13.8 Kva=112.5 %R=0.500
~ wdg=2 bus=2782456-10863152v.1.2.3.4 conn=wye Kv=0.2200 Kva=112.5 %R=0.500
New Transformer.2782445 phases=3 windings=2 Xhl=1.200
~ wdg=1 bus=16085-10863156.1.2.3 conn=delta Kv=13.8 Kva=75.0 %R=0.500
~ wdg=2 bus=2782445-10863157.1.2.3.4 conn=wye Kv=0.2200 Kva=75.0 %R=0.500
New Transformer.2782459 phases=3 windings=2 Xhl=1.200
~ wdg=1 bus=16085-10863246.1.2.3 conn=delta Kv=13.8 Kva=112.5 %R=0.500
~ wdg=2 bus=2782459-10863246v.1.2.3.4 conn=wye Kv=0.2200 Kva=112.5 %R=0.500
New Transformer.2782462 phases=3 windings=2 Xhl=1.200
~ wdg=1 bus=16085-10863252.1.2.3 conn=delta Kv=13.8 Kva=75.0 %R=0.500
~ wdg=2 bus=2782462-10863252v.1.2.3.4 conn=wye Kv=0.2200 Kva=75.0 %R=0.500
New Transformer.2782511 phases=3 windings=2 Xhl=1.200
~ wdg=1 bus=16085-10863264.1.2.3 conn=delta Kv=13.8 Kva=45.0 %R=0.500
~ wdg=2 bus=2782511-10863265.1.2.3.4 conn=wye Kv=0.2200 Kva=45.0 %R=0.500
New Transformer.2782494 phases=3 windings=2 Xhl=1.200
~ wdg=1 bus=16085-10863275.1.2.3 conn=delta Kv=13.8 Kva=75.0 %R=0.500
~ wdg=2 bus=2782494-10863276.1.2.3.4 conn=wye Kv=0.2200 Kva=75.0 %R=0.500
New Transformer.2782483 phases=1 windings=3 Xhl=1.200 Xht=1.200 Xlt=0.600
~ wdg=1 bus=16085-10863278.2 conn=wye Kv=7.9674 Kva=15.0 %R=0.500
~ wdg=2 bus=2782483-10863278v.1.4 conn=wye Kv=0.1100 Kva=15.0 %R=0.500
~ wdg=3 bus=2782483-10863278v.4.2 conn=wye Kv=0.1100 Kva=15.0 %R=0.500
New Transformer.2782498 phases=3 windings=2 Xhl=1.200
~ wdg=1 bus=16085-10863279.1.2.3 conn=delta Kv=13.8 Kva=45.0 %R=0.500
~ wdg=2 bus=2782498-10863280.1.2.3.4 conn=wye Kv=0.2200 Kva=45.0 %R=0.500
New Transformer.2782485 phases=3 windings=2 Xhl=1.200
~ wdg=1 bus=16085-10863281.1.2.3 conn=delta Kv=13.8 Kva=300.0 %R=0.500
~ wdg=2 bus=2782485-10863281v.1.2.3.4 conn=wye Kv=0.2200 Kva=300.0 %R=0.500
New Transformer.2782497 phases=3 windings=2 Xhl=1.200
~ wdg=1 bus=16085-10863339.1.2.3 conn=delta Kv=13.8 Kva=45.0 %R=0.500
~ wdg=2 bus=2782497-10863339v.1.2.3.4 conn=wye Kv=0.2200 Kva=45.0 %R=0.500
New Transformer.3082263 phases=3 windings=2 Xhl=1.200
~ wdg=1 bus=16085-10863345.1.2.3 conn=delta Kv=13.8 Kva=45.0 %R=0.500
~ wdg=2 bus=3082263-10863345v.1.2.3.4 conn=wye Kv=0.2200 Kva=45.0 %R=0.500
New Transformer.2782486 phases=3 windings=2 Xhl=1.200
~ wdg=1 bus=16085-10863364.1.2.3 conn=delta Kv=13.8 Kva=112.5 %R=0.500
~ wdg=2 bus=2782486-10863365.1.2.3.4 conn=wye Kv=0.2200 Kva=112.5 %R=0.500
New Transformer.2782506 phases=3 windings=2 Xhl=1.200
~ wdg=1 bus=16085-10863377.1.2.3 conn=delta Kv=13.8 Kva=75.0 %R=0.500
~ wdg=2 bus=2782506-10863377v.1.2.3.4 conn=wye Kv=0.2200 Kva=75.0 %R=0.500
New Transformer.2782504 phases=3 windings=2 Xhl=1.200
~ wdg=1 bus=16085-10863380.1.2.3 conn=delta Kv=13.8 Kva=150.0 %R=0.500
~ wdg=2 bus=2782504-10863380v.1.2.3.4 conn=wye Kv=0.2200 Kva=150.0 %R=0.500
New Transformer.2782471 phases=3 windings=2 Xhl=1.200
~ wdg=1 bus=16085-10863381.1.2.3 conn=delta Kv=13.8 Kva=112.5 %R=0.500
~ wdg=2 bus=2782471-10863381v.1.2.3.4 conn=wye Kv=0.2200 Kva=112.5 %R=0.500
New Transformer.2782476 phases=3 windings=2 Xhl=1.200
~ wdg=1 bus=16085-10863383.1.2.3 conn=delta Kv=13.8 Kva=112.5 %R=0.500
~ wdg=2 bus=2782476-10863383v.1.2.3.4 conn=wye Kv=0.2200 Kva=112.5 %R=0.500
New Transformer.2782502 phases=3 windings=2 Xhl=1.200
~ wdg=1 bus=16085-10863484.1.2.3 conn=delta Kv=13.8 Kva=45.0 %R=0.500
~ wdg=2 bus=2782502-10863484v.1.2.3.4 conn=wye Kv=0.2200 Kva=45.0 %R=0.500
New Transformer.2782465 phases=3 windings=2 Xhl=1.200
~ wdg=1 bus=16085-10863487.1.2.3 conn=delta Kv=13.8 Kva=45.0 %R=0.500
~ wdg=2 bus=2782465-10863488.1.2.3.4 conn=wye Kv=0.2200 Kva=45.0 %R=0.500
New Transformer.2782512 phases=3 windings=2 Xhl=1.200
~ wdg=1 bus=16085-10863489.1.2.3 conn=delta Kv=13.8 Kva=112.5 %R=0.500
~ wdg=2 bus=2782512-10863490.1.2.3.4 conn=wye Kv=0.2200 Kva=112.5 %R=0.500
New Transformer.2782521 phases=3 windings=2 Xhl=1.200
~ wdg=1 bus=16085-10863544.1.2.3 conn=delta Kv=13.8 Kva=75.0 %R=0.500
~ wdg=2 bus=2782521-10863545.1.2.3.4 conn=wye Kv=0.2200 Kva=75.0 %R=0.500
New Transformer.2782524 phases=1 windings=3 Xhl=1.200 Xht=1.200 Xlt=0.600
~ wdg=1 bus=16085-10863547.1 conn=wye Kv=7.9674 Kva=10.0 %R=0.500
~ wdg=2 bus=2782524-10863547v.1.4 conn=wye Kv=0.1100 Kva=10.0 %R=0.500
~ wdg=3 bus=2782524-10863547v.4.2 conn=wye Kv=0.1100 Kva=10.0 %R=0.500
New Transformer.2782457 phases=3 windings=2 Xhl=1.200
~ wdg=1 bus=16085-10863572.1.2.3 conn=delta Kv=13.8 Kva=112.5 %R=0.500
~ wdg=2 bus=2782457-10863573.1.2.3.4 conn=wye Kv=0.2200 Kva=112.5 %R=0.500
New Transformer.2782442 phases=3 windings=2 Xhl=1.200
~ wdg=1 bus=16085-10863574.1.2.3 conn=delta Kv=13.8 Kva=75.0 %R=0.500
~ wdg=2 bus=2782442-10863575.1.2.3.4 conn=wye Kv=0.2200 Kva=75.0 %R=0.500
New Transformer.2782487 phases=3 windings=2 Xhl=1.200
~ wdg=1 bus=16085-10863576.1.2.3 conn=delta Kv=13.8 Kva=112.5 %R=0.500
~ wdg=2 bus=2782487-10863577.1.2.3.4 conn=wye Kv=0.2200 Kva=112.5 %R=0.500
New Transformer.2782505 phases=1 windings=3 Xhl=1.200 Xht=1.200 Xlt=0.600
~ wdg=1 bus=16085-10863596.1 conn=wye Kv=7.9674 Kva=15.0 %R=0.500
~ wdg=2 bus=2782505-10863596v.1.4 conn=wye Kv=0.1100 Kva=15.0 %R=0.500
~ wdg=3 bus=2782505-10863596v.4.2 conn=wye Kv=0.1100 Kva=15.0 %R=0.500
New Transformer.3107356 phases=3 windings=2 Xhl=1.200
~ wdg=1 bus=16085-12389066.1.2.3 conn=delta Kv=13.8 Kva=45.0 %R=0.500
~ wdg=2 bus=3107356-12389066v.1.2.3.4 conn=wye Kv=0.2200 Kva=45.0 %R=0.500
New Transformer.3111312 phases=3 windings=2 Xhl=1.200
~ wdg=1 bus=16085-12415487.1.2.3 conn=delta Kv=13.8 Kva=45.0 %R=0.500
~ wdg=2 bus=3111312-10862861.1.2.3.4 conn=wye Kv=0.2200 Kva=45.0 %R=0.500
New Transformer.3111364 phases=3 windings=2 Xhl=1.200
~ wdg=1 bus=16085-12420689.1.2.3 conn=delta Kv=13.8 Kva=45.0 %R=0.500
~ wdg=2 bus=3111364-10863311.1.2.3.4 conn=wye Kv=0.2200 Kva=45.0 %R=0.500
New Transformer.3111759 phases=3 windings=2 Xhl=1.200
~ wdg=1 bus=16085-12423517.1.2.3 conn=delta Kv=13.8 Kva=75.0 %R=0.500
~ wdg=2 bus=3111759-12423518.1.2.3.4 conn=wye Kv=0.2200 Kva=75.0 %R=0.500
New Transformer.3113168 phases=3 windings=2 Xhl=1.200
~ wdg=1 bus=16085-12437872.1.2.3 conn=delta Kv=13.8 Kva=300.0 %R=0.500
~ wdg=2 bus=3113168-12437872v.1.2.3.4 conn=wye Kv=0.2200 Kva=300.0 %R=0.500
New Transformer.3116512 phases=3 windings=2 Xhl=1.200
~ wdg=1 bus=16085-12456308.1.2.3 conn=delta Kv=13.8 Kva=75.0 %R=0.500
~ wdg=2 bus=3116512-12456309.1.2.3.4 conn=wye Kv=0.2200 Kva=75.0 %R=0.500
New Transformer.3133779 phases=3 windings=2 Xhl=1.200
~ wdg=1 bus=16085-12559420.1.2.3 conn=delta Kv=13.8 Kva=45.0 %R=0.500
~ wdg=2 bus=3133779-12559420v.1.2.3.4 conn=wye Kv=0.2200 Kva=45.0 %R=0.500
New Transformer.3133899 phases=3 windings=2 Xhl=1.200
~ wdg=1 bus=16085-12559991.1.2.3 conn=delta Kv=13.8 Kva=75.0 %R=0.500
~ wdg=2 bus=3133899-12559993.1.2.3.4 conn=wye Kv=0.2200 Kva=75.0 %R=0.500
New Transformer.3143061 phases=3 windings=2 Xhl=1.200
~ wdg=1 bus=16085-12613379.1.2.3 conn=delta Kv=13.8 Kva=112.5 %R=0.500
~ wdg=2 bus=3143061-12613380.1.2.3.4 conn=wye Kv=0.2200 Kva=112.5 %R=0.500
New Transformer.3143073 phases=3 windings=2 Xhl=1.200
~ wdg=1 bus=16085-12613392.1.2.3 conn=delta Kv=13.8 Kva=75.0 %R=0.500
~ wdg=2 bus=3143073-12613393.1.2.3.4 conn=wye Kv=0.2200 Kva=75.0 %R=0.500
New Transformer.3132057 phases=3 windings=2 Xhl=1.200
~ wdg=1 bus=16087-10864332.1.2.3 conn=delta Kv=13.8 Kva=45.0 %R=0.500
~ wdg=2 bus=3132057-10863495.1.2.3.4 conn=wye Kv=0.2200 Kva=45.0 %R=0.500
New Transformer.2782679 phases=3 windings=2 Xhl=1.200
~ wdg=1 bus=16087-10864337.1.2.3 conn=delta Kv=13.8 Kva=150.0 %R=0.500
~ wdg=2 bus=2782679-10864338.1.2.3.4 conn=wye Kv=0.2200 Kva=150.0 %R=0.500
New Transformer.2782728 phases=1 windings=3 Xhl=1.200 Xht=1.200 Xlt=0.600
~ wdg=1 bus=16087-10864370.2 conn=wye Kv=7.9674 Kva=5.0 %R=0.500
~ wdg=2 bus=2782728-10864370v.1.4 conn=wye Kv=0.1100 Kva=5.0 %R=0.500
~ wdg=3 bus=2782728-10864370v.4.2 conn=wye Kv=0.1100 Kva=5.0 %R=0.500
New Transformer.2782665 phases=3 windings=2 Xhl=1.200
~ wdg=1 bus=16087-10864378.1.2.3 conn=delta Kv=13.8 Kva=45.0 %R=0.500
~ wdg=2 bus=2782665-10864379.1.2.3.4 conn=wye Kv=0.2200 Kva=45.0 %R=0.500
New Transformer.2782766 phases=1 windings=3 Xhl=1.200 Xht=1.200 Xlt=0.600
~ wdg=1 bus=16087-10864380.2 conn=wye Kv=7.9674 Kva=15.0 %R=0.500
~ wdg=2 bus=2782766-10864380v.1.4 conn=wye Kv=0.1100 Kva=15.0 %R=0.500
~ wdg=3 bus=2782766-10864380v.4.2 conn=wye Kv=0.1100 Kva=15.0 %R=0.500
New Transformer.2782719 phases=3 windings=2 Xhl=1.200
~ wdg=1 bus=16087-10864428.1.2.3 conn=delta Kv=13.8 Kva=75.0 %R=0.500
~ wdg=2 bus=2782719-10864429.1.2.3.4 conn=wye Kv=0.2200 Kva=75.0 %R=0.500
New Transformer.2782706 phases=3 windings=2 Xhl=1.200
~ wdg=1 bus=16087-10864458.1.2.3 conn=delta Kv=13.8 Kva=75.0 %R=0.500
~ wdg=2 bus=2782706-10864458v.1.2.3.4 conn=wye Kv=0.2200 Kva=75.0 %R=0.500
New Transformer.2782752 phases=1 windings=3 Xhl=1.200 Xht=1.200 Xlt=0.600
~ wdg=1 bus=16087-10864468.2 conn=wye Kv=7.9674 Kva=15.0 %R=0.500
~ wdg=2 bus=2782752-10864469.1.4 conn=wye Kv=0.1100 Kva=15.0 %R=0.500
~ wdg=3 bus=2782752-10864469.4.2 conn=wye Kv=0.1100 Kva=15.0 %R=0.500
New Transformer.2782672 phases=1 windings=3 Xhl=1.200 Xht=1.200 Xlt=0.600
~ wdg=1 bus=16087-10864472.2 conn=wye Kv=7.9674 Kva=15.0 %R=0.500
~ wdg=2 bus=2782672-10864472v.1.4 conn=wye Kv=0.1100 Kva=15.0 %R=0.500
~ wdg=3 bus=2782672-10864472v.4.2 conn=wye Kv=0.1100 Kva=15.0 %R=0.500
New Transformer.2782686 phases=3 windings=2 Xhl=1.200
~ wdg=1 bus=16087-10864484.1.2.3 conn=delta Kv=13.8 Kva=75.0 %R=0.500
~ wdg=2 bus=2782686-10864484v.1.2.3.4 conn=wye Kv=0.2200 Kva=75.0 %R=0.500
New Transformer.2782747 phases=3 windings=2 Xhl=1.200
~ wdg=1 bus=16087-10864542.1.2.3 conn=delta Kv=13.8 Kva=112.5 %R=0.500
~ wdg=2 bus=2782747-10864543.1.2.3.4 conn=wye Kv=0.2200 Kva=112.5 %R=0.500
New Transformer.2782705 phases=3 windings=2 Xhl=1.200
~ wdg=1 bus=16087-10864549.1.2.3 conn=delta Kv=13.8 Kva=75.0 %R=0.500
~ wdg=2 bus=2782705-10864550.1.2.3.4 conn=wye Kv=0.2200 Kva=75.0 %R=0.500
New Transformer.2782714 phases=1 windings=3 Xhl=1.200 Xht=1.200 Xlt=0.600
~ wdg=1 bus=16087-10864552.1 conn=wye Kv=7.9674 Kva=15.0 %R=0.500
~ wdg=2 bus=2782714-10864553.1.4 conn=wye Kv=0.1100 Kva=15.0 %R=0.500
~ wdg=3 bus=2782714-10864553.4.2 conn=wye Kv=0.1100 Kva=15.0 %R=0.500
New Transformer.2782654 phases=3 windings=2 Xhl=1.200
~ wdg=1 bus=16087-10864636.1.2.3 conn=delta Kv=13.8 Kva=112.5 %R=0.500
~ wdg=2 bus=2782654-10864636v.1.2.3.4 conn=wye Kv=0.2200 Kva=112.5 %R=0.500
New Transformer.2782725 phases=3 windings=2 Xhl=1.200
~ wdg=1 bus=16087-10864637.1.2.3 conn=delta Kv=13.8 Kva=75.0 %R=0.500
~ wdg=2 bus=2782725-10864637v.1.2.3.4 conn=wye Kv=0.2200 Kva=75.0 %R=0.500
New Transformer.2782757 phases=1 windings=3 Xhl=1.200 Xht=1.200 Xlt=0.600
~ wdg=1 bus=16087-10864639.2 conn=wye Kv=7.9674 Kva=5.0 %R=0.500
~ wdg=2 bus=2782757-10864639v.1.4 conn=wye Kv=0.1100 Kva=5.0 %R=0.500
~ wdg=3 bus=2782757-10864639v.4.2 conn=wye Kv=0.1100 Kva=5.0 %R=0.500
New Transformer.2782678 phases=1 windings=3 Xhl=1.200 Xht=1.200 Xlt=0.600
~ wdg=1 bus=16087-10864703.1 conn=wye Kv=7.9674 Kva=25.0 %R=0.500
~ wdg=2 bus=2782678-10864704.1.4 conn=wye Kv=0.1100 Kva=25.0 %R=0.500
~ wdg=3 bus=2782678-10864704.4.2 conn=wye Kv=0.1100 Kva=25.0 %R=0.500
New Transformer.2782746 phases=3 windings=2 Xhl=1.200
~ wdg=1 bus=16087-10864722.1.2.3 conn=delta Kv=13.8 Kva=45.0 %R=0.500
~ wdg=2 bus=2782746-10864723.1.2.3.4 conn=wye Kv=0.2200 Kva=45.0 %R=0.500
New Transformer.2782721 phases=3 windings=2 Xhl=1.200
~ wdg=1 bus=16087-10864727.1.2.3 conn=delta Kv=13.8 Kva=112.5 %R=0.500
~ wdg=2 bus=2782721-10864727v.1.2.3.4 conn=wye Kv=0.2200 Kva=112.5 %R=0.500
New Transformer.2782690 phases=1 windings=3 Xhl=1.200 Xht=1.200 Xlt=0.600
~ wdg=1 bus=16087-10864728.2 conn=wye Kv=7.9674 Kva=25.0 %R=0.500
~ wdg=2 bus=2782690-10864728v.1.4 conn=wye Kv=0.1100 Kva=25.0 %R=0.500
~ wdg=3 bus=2782690-10864728v.4.2 conn=wye Kv=0.1100 Kva=25.0 %R=0.500
New Transformer.2782745 phases=3 windings=2 Xhl=1.200
~ wdg=1 bus=16087-10864729.1.2.3 conn=delta Kv=13.8 Kva=75.0 %R=0.500
~ wdg=2 bus=2782745-10864730.1.2.3.4 conn=wye Kv=0.2200 Kva=75.0 %R=0.500
New Transformer.2782666 phases=1 windings=3 Xhl=1.200 Xht=1.200 Xlt=0.600
~ wdg=1 bus=16087-10864731.2 conn=wye Kv=7.9674 Kva=25.0 %R=0.500
~ wdg=2 bus=2782666-10864731v.1.4 conn=wye Kv=0.1100 Kva=25.0 %R=0.500
~ wdg=3 bus=2782666-10864731v.4.2 conn=wye Kv=0.1100 Kva=25.0 %R=0.500
New Transformer.2782699 phases=1 windings=3 Xhl=1.200 Xht=1.200 Xlt=0.600
~ wdg=1 bus=16087-10864734.2 conn=wye Kv=7.9674 Kva=10.0 %R=0.500
~ wdg=2 bus=2782699-10864734v.1.4 conn=wye Kv=0.1100 Kva=10.0 %R=0.500
~ wdg=3 bus=2782699-10864734v.4.2 conn=wye Kv=0.1100 Kva=10.0 %R=0.500
New Transformer.2782688 phases=3 windings=2 Xhl=1.200
~ wdg=1 bus=16087-10864799.1.2.3 conn=delta Kv=13.8 Kva=75.0 %R=0.500
~ wdg=2 bus=2782688-10864800.1.2.3.4 conn=wye Kv=0.2200 Kva=75.0 %R=0.500
New Transformer.2782687 phases=1 windings=3 Xhl=1.200 Xht=1.200 Xlt=0.600
~ wdg=1 bus=16087-10864801.1 conn=wye Kv=7.9674 Kva=5.0 %R=0.500
~ wdg=2 bus=2782687-10864801v.1.4 conn=wye Kv=0.1100 Kva=5.0 %R=0.500
~ wdg=3 bus=2782687-10864801v.4.2 conn=wye Kv=0.1100 Kva=5.0 %R=0.500
New Transformer.2782689 phases=3 windings=2 Xhl=1.200
~ wdg=1 bus=16087-10864806.1.2.3 conn=delta Kv=13.8 Kva=112.5 %R=0.500
~ wdg=2 bus=2782689-10864806v.1.2.3.4 conn=wye Kv=0.2200 Kva=112.5 %R=0.500
New Transformer.2782733 phases=3 windings=2 Xhl=1.200
~ wdg=1 bus=16087-10864807.1.2.3 conn=delta Kv=13.8 Kva=112.5 %R=0.500
~ wdg=2 bus=2782733-10864807v.1.2.3.4 conn=wye Kv=0.2200 Kva=112.5 %R=0.500
New Transformer.2782697 phases=3 windings=2 Xhl=1.200
~ wdg=1 bus=16087-10864808.1.2.3 conn=delta Kv=13.8 Kva=75.0 %R=0.500
~ wdg=2 bus=2782697-10864808v.1.2.3.4 conn=wye Kv=0.2200 Kva=75.0 %R=0.500
New Transformer.2782763 phases=3 windings=2 Xhl=1.200
~ wdg=1 bus=16087-10864809.1.2.3 conn=delta Kv=13.8 Kva=45.0 %R=0.500
~ wdg=2 bus=2782763-10864809v.1.2.3.4 conn=wye Kv=0.2200 Kva=45.0 %R=0.500
New Transformer.2782669 phases=3 windings=2 Xhl=1.200
~ wdg=1 bus=16087-10864810.1.2.3 conn=delta Kv=13.8 Kva=112.5 %R=0.500
~ wdg=2 bus=2782669-10864810v.1.2.3.4 conn=wye Kv=0.2200 Kva=112.5 %R=0.500
New Transformer.3198674 phases=3 windings=2 Xhl=1.200
~ wdg=1 bus=16087-10864858.1.2.3 conn=delta Kv=13.8 Kva=45.0 %R=0.500
~ wdg=2 bus=3198674-13070156.1.2.3.4 conn=wye Kv=0.2200 Kva=45.0 %R=0.500
New Transformer.2782748 phases=3 windings=2 Xhl=1.200
~ wdg=1 bus=16087-10864891.1.2.3 conn=delta Kv=13.8 Kva=45.0 %R=0.500
~ wdg=2 bus=2782748-10864891v.1.2.3.4 conn=wye Kv=0.2200 Kva=45.0 %R=0.500
New Transformer.2782691 phases=3 windings=2 Xhl=1.200
~ wdg=1 bus=16087-10864904.1.2.3 conn=delta Kv=13.8 Kva=45.0 %R=0.500
~ wdg=2 bus=2782691-10864904v.1.2.3.4 conn=wye Kv=0.2200 Kva=45.0 %R=0.500
New Transformer.2782722 phases=3 windings=2 Xhl=1.200
~ wdg=1 bus=16087-10864906.1.2.3 conn=delta Kv=13.8 Kva=225.0 %R=0.500
~ wdg=2 bus=2782722-10864906v.1.2.3.4 conn=wye Kv=0.2200 Kva=225.0 %R=0.500
New Transformer.2782765 phases=1 windings=3 Xhl=1.200 Xht=1.200 Xlt=0.600
~ wdg=1 bus=16087-10864909.1 conn=wye Kv=7.9674 Kva=25.0 %R=0.500
~ wdg=2 bus=2782765-10864910.1.4 conn=wye Kv=0.1100 Kva=25.0 %R=0.500
~ wdg=3 bus=2782765-10864910.4.2 conn=wye Kv=0.1100 Kva=25.0 %R=0.500
New Transformer.2782751 phases=1 windings=3 Xhl=1.200 Xht=1.200 Xlt=0.600
~ wdg=1 bus=16087-10864912.2 conn=wye Kv=7.9674 Kva=15.0 %R=0.500
~ wdg=2 bus=2782751-10864912v.1.4 conn=wye Kv=0.1100 Kva=15.0 %R=0.500
~ wdg=3 bus=2782751-10864912v.4.2 conn=wye Kv=0.1100 Kva=15.0 %R=0.500
New Transformer.2782760 phases=3 windings=2 Xhl=1.200
~ wdg=1 bus=16087-10864985.1.2.3 conn=delta Kv=13.8 Kva=112.5 %R=0.500
~ wdg=2 bus=2782760-10864985v.1.2.3.4 conn=wye Kv=0.2200 Kva=112.5 %R=0.500
New Transformer.2782656 phases=3 windings=2 Xhl=1.200
~ wdg=1 bus=16087-10864986.1.2.3 conn=delta Kv=13.8 Kva=15.0 %R=0.500
~ wdg=2 bus=2782656-10864986v.1.2.3.4 conn=wye Kv=0.2200 Kva=15.0 %R=0.500
New Transformer.2782674 phases=3 windings=2 Xhl=1.200
~ wdg=1 bus=16087-10864987.1.2.3 conn=delta Kv=13.8 Kva=45.0 %R=0.500
~ wdg=2 bus=2782674-10864988.1.2.3.4 conn=wye Kv=0.2200 Kva=45.0 %R=0.500
New Transformer.2782734 phases=3 windings=2 Xhl=1.200
~ wdg=1 bus=16087-10864992.1.2.3 conn=delta Kv=13.8 Kva=75.0 %R=0.500
~ wdg=2 bus=2782734-10864992v.1.2.3.4 conn=wye Kv=0.2200 Kva=75.0 %R=0.500
New Transformer.2782683 phases=1 windings=3 Xhl=1.200 Xht=1.200 Xlt=0.600
~ wdg=1 bus=16087-10864995.1 conn=wye Kv=7.9674 Kva=25.0 %R=0.500
~ wdg=2 bus=2782683-10864996.1.4 conn=wye Kv=0.1100 Kva=25.0 %R=0.500
~ wdg=3 bus=2782683-10864996.4.2 conn=wye Kv=0.1100 Kva=25.0 %R=0.500
New Transformer.2782818 phases=3 windings=2 Xhl=1.200
~ wdg=1 bus=16087-11382814.1.2.3 conn=delta Kv=13.8 Kva=112.5 %R=0.500
~ wdg=2 bus=2782818-10865043.1.2.3.4 conn=wye Kv=0.2200 Kva=112.5 %R=0.500
New Transformer.2782756 phases=1 windings=3 Xhl=1.200 Xht=1.200 Xlt=0.600
~ wdg=1 bus=16087-11879566.1 conn=wye Kv=7.9674 Kva=10.0 %R=0.500
~ wdg=2 bus=2782756-11879566v.1.4 conn=wye Kv=0.1100 Kva=10.0 %R=0.500
~ wdg=3 bus=2782756-11879566v.4.2 conn=wye Kv=0.1100 Kva=10.0 %R=0.500
New Transformer.3072117 phases=3 windings=2 Xhl=1.200
~ wdg=1 bus=16087-12162143.1.2.3 conn=delta Kv=13.8 Kva=500.0 %R=0.500
~ wdg=2 bus=3072117-12162143v.1.2.3.4 conn=wye Kv=0.2200 Kva=500.0 %R=0.500
New Transformer.3111341 phases=3 windings=2 Xhl=1.200
~ wdg=1 bus=16087-12416005.1.2.3 conn=delta Kv=13.8 Kva=112.5 %R=0.500
~ wdg=2 bus=3111341-12416005v.1.2.3.4 conn=wye Kv=0.2200 Kva=112.5 %R=0.500
New Transformer.3123657 phases=3 windings=2 Xhl=1.200
~ wdg=1 bus=16087-12500079.1.2.3 conn=delta Kv=13.8 Kva=75.0 %R=0.500
~ wdg=2 bus=3123657-12500079v.1.2.3.4 conn=wye Kv=0.2200 Kva=75.0 %R=0.500
New Transformer.3127878 phases=3 windings=2 Xhl=1.200
~ wdg=1 bus=16087-12522567.1.2.3 conn=delta Kv=13.8 Kva=45.0 %R=0.500
~ wdg=2 bus=3127878-12522567v.1.2.3.4 conn=wye Kv=0.2200 Kva=45.0 %R=0.500
New Transformer.3135711 phases=3 windings=2 Xhl=1.200
~ wdg=1 bus=16087-12570804.1.2.3 conn=delta Kv=13.8 Kva=75.0 %R=0.500
~ wdg=2 bus=3135711-12570833.1.2.3.4 conn=wye Kv=0.2200 Kva=75.0 %R=0.500
New Transformer.3144565 phases=3 windings=2 Xhl=1.200
~ wdg=1 bus=16087-12624128.1.2.3 conn=delta Kv=13.8 Kva=112.5 %R=0.500
~ wdg=2 bus=3144565-12624128v.1.2.3.4 conn=wye Kv=0.2200 Kva=112.5 %R=0.500
New Transformer.2782712 phases=3 windings=2 Xhl=1.200
~ wdg=1 bus=16087-12792896.1.2.3 conn=delta Kv=13.8 Kva=112.5 %R=0.500
~ wdg=2 bus=2782712-12795665.1.2.3.4 conn=wye Kv=0.2200 Kva=112.5 %R=0.500
New Transformer.3112112 phases=3 windings=2 Xhl=1.200
~ wdg=1 bus=25448-12426448.1.2.3 conn=delta Kv=13.8 Kva=112.5 %R=0.500
~ wdg=2 bus=3112112-12426448v.1.2.3.4 conn=wye Kv=0.2200 Kva=112.5 %R=0.500
New Transformer.3120065 phases=3 windings=2 Xhl=1.200
~ wdg=1 bus=16085-12479749.1.2.3 conn=delta Kv=13.8 Kva=30.0 %R=0.500
~ wdg=2 bus=3120065-12479749v.1.2.3.4 conn=wye Kv=0.2200 Kva=30.0 %R=0.500
New Transformer.2782759 phases=3 windings=2 Xhl=1.200
~ wdg=1 bus=16087-10864905.1.2.3 conn=delta Kv=13.8 Kva=112.5 %R=0.500
~ wdg=2 bus=2782759-10864905v.1.2.3.4 conn=wye Kv=0.2200 Kva=112.5 %R=0.500
New Transformer.2782902 phases=3 windings=2 Xhl=1.200
~ wdg=1 bus=16088-10865390.1.2.3 conn=delta Kv=13.8 Kva=75.0 %R=0.500
~ wdg=2 bus=2782902-10865390v.1.2.3.4 conn=wye Kv=0.2200 Kva=75.0 %R=0.500
New Transformer.2205326 phases=3 windings=2 Xhl=1.200
~ wdg=1 bus=25448-7498186.1.2.3 conn=delta Kv=13.8 Kva=75.0 %R=0.500
~ wdg=2 bus=2205326-7498186v.1.2.3.4 conn=wye Kv=0.2200 Kva=75.0 %R=0.500
New Transformer.2782988 phases=3 windings=2 Xhl=1.200
~ wdg=1 bus=16088-10866233.1.2.3 conn=delta Kv=13.8 Kva=112.5 %R=0.500
~ wdg=2 bus=2782988-10866233v.1.2.3.4 conn=wye Kv=0.2200 Kva=112.5 %R=0.500
New Transformer.2782944 phases=3 windings=2 Xhl=1.200
~ wdg=1 bus=16088-10865392.1.2.3 conn=delta Kv=13.8 Kva=45.0 %R=0.500
~ wdg=2 bus=2782944-10865392v.1.2.3.4 conn=wye Kv=0.2200 Kva=45.0 %R=0.500
New Transformer.2782740 phases=1 windings=3 Xhl=1.200 Xht=1.200 Xlt=0.600
~ wdg=1 bus=16087-10864640.2 conn=wye Kv=7.9674 Kva=15.0 %R=0.500
~ wdg=2 bus=2782740-10864640v.1.4 conn=wye Kv=0.1100 Kva=15.0 %R=0.500
~ wdg=3 bus=2782740-10864640v.4.2 conn=wye Kv=0.1100 Kva=15.0 %R=0.500
New Transformer.3194831 phases=3 windings=2 Xhl=1.200
~ wdg=1 bus=16085-13048589.1.2.3 conn=delta Kv=13.8 Kva=112.5 %R=0.500
~ wdg=2 bus=3194831-13048589v.1.2.3.4 conn=wye Kv=0.2200 Kva=112.5 %R=0.500
New Transformer.2782451 phases=3 windings=2 Xhl=1.200
~ wdg=1 bus=16085-10862941.1.2.3 conn=delta Kv=13.8 Kva=45.0 %R=0.500
~ wdg=2 bus=2782451-10862941v.1.2.3.4 conn=wye Kv=0.2200 Kva=45.0 %R=0.500
New Transformer.2204735 phases=1 windings=3 Xhl=1.200 Xht=1.200 Xlt=0.600
~ wdg=1 bus=25448-7499556.3 conn=wye Kv=7.9674 Kva=10.0 %R=0.500
~ wdg=2 bus=2204735-7499556v.1.4 conn=wye Kv=0.1100 Kva=10.0 %R=0.500
~ wdg=3 bus=2204735-7499556v.4.2 conn=wye Kv=0.1100 Kva=10.0 %R=0.500
New Transformer.2782750 phases=3 windings=2 Xhl=1.200
~ wdg=1 bus=16087-10864811.1.2.3 conn=delta Kv=13.8 Kva=112.5 %R=0.500
~ wdg=2 bus=2782750-10864811v.1.2.3.4 conn=wye Kv=0.2200 Kva=112.5 %R=0.500
New Transformer.2782516 phases=3 windings=2 Xhl=1.200
~ wdg=1 bus=16085-10863042.1.2.3 conn=delta Kv=13.8 Kva=112.5 %R=0.500
~ wdg=2 bus=2782516-10863042v.1.2.3.4 conn=wye Kv=0.2200 Kva=112.5 %R=0.500
New Transformer.2782830 phases=3 windings=2 Xhl=1.200
~ wdg=1 bus=16088-10865797.1.2.3 conn=delta Kv=13.8 Kva=112.5 %R=0.500
~ wdg=2 bus=2782830-10865797v.1.2.3.4 conn=wye Kv=0.2200 Kva=112.5 %R=0.500
New Transformer.2782792 phases=3 windings=2 Xhl=1.200
~ wdg=1 bus=16088-10865391.1.2.3 conn=delta Kv=13.8 Kva=112.5 %R=0.500
~ wdg=2 bus=2782792-10865391v.1.2.3.4 conn=wye Kv=0.2200 Kva=112.5 %R=0.500
New Transformer.3143158 phases=3 windings=2 Xhl=1.200
~ wdg=1 bus=16085-12613870.1.2.3 conn=delta Kv=13.8 Kva=112.5 %R=0.500
~ wdg=2 bus=3143158-12613870v.1.2.3.4 conn=wye Kv=0.2200 Kva=112.5 %R=0.500
New Transformer.2782774 phases=3 windings=2 Xhl=1.200
~ wdg=1 bus=16088-10867808.1.2.3 conn=delta Kv=13.8 Kva=112.5 %R=0.500
~ wdg=2 bus=2782774-10867808v.1.2.3.4 conn=wye Kv=0.2200 Kva=112.5 %R=0.500
New Transformer.2782789 phases=1 windings=3 Xhl=1.200 Xht=1.200 Xlt=0.600
~ wdg=1 bus=16088-10867445.2 conn=wye Kv=7.9674 Kva=10.0 %R=0.500
~ wdg=2 bus=2782789-10867445v.1.4 conn=wye Kv=0.1100 Kva=10.0 %R=0.500
~ wdg=3 bus=2782789-10867445v.4.2 conn=wye Kv=0.1100 Kva=10.0 %R=0.500
New Transformer.2782467 phases=1 windings=3 Xhl=1.200 Xht=1.200 Xlt=0.600
~ wdg=1 bus=16085-10863594.1 conn=wye Kv=7.9674 Kva=15.0 %R=0.500
~ wdg=2 bus=2782467-10863594v.1.4 conn=wye Kv=0.1100 Kva=15.0 %R=0.500
~ wdg=3 bus=2782467-10863594v.4.2 conn=wye Kv=0.1100 Kva=15.0 %R=0.500
New Transformer.2782755 phases=1 windings=3 Xhl=1.200 Xht=1.200 Xlt=0.600
~ wdg=1 bus=16087-10864908.1 conn=wye Kv=7.9674 Kva=5.0 %R=0.500
~ wdg=2 bus=2782755-10864908v.1.4 conn=wye Kv=0.1100 Kva=5.0 %R=0.500
~ wdg=3 bus=2782755-10864908v.4.2 conn=wye Kv=0.1100 Kva=5.0 %R=0.500
New Transformer.2782831 phases=3 windings=2 Xhl=1.200
~ wdg=1 bus=16088-10867070.1.2.3 conn=delta Kv=13.8 Kva=112.5 %R=0.500
~ wdg=2 bus=2782831-10867070v.1.2.3.4 conn=wye Kv=0.2200 Kva=112.5 %R=0.500
New Transformer.2782695 phases=3 windings=2 Xhl=1.200
~ wdg=1 bus=16087-10864551.1.2.3 conn=delta Kv=13.8 Kva=75.0 %R=0.500
~ wdg=2 bus=2782695-10864551v.1.2.3.4 conn=wye Kv=0.2200 Kva=75.0 %R=0.500
New Transformer.2782525 phases=3 windings=2 Xhl=1.200
~ wdg=1 bus=16085-10863483.1.2.3 conn=delta Kv=13.8 Kva=45.0 %R=0.500
~ wdg=2 bus=2782525-10863483v.1.2.3.4 conn=wye Kv=0.2200 Kva=45.0 %R=0.500
New Transformer.2204707 phases=3 windings=2 Xhl=1.200
~ wdg=1 bus=25448-7498828.1.2.3 conn=delta Kv=13.8 Kva=75.0 %R=0.500
~ wdg=2 bus=2204707-7498828v.1.2.3.4 conn=wye Kv=0.2200 Kva=75.0 %R=0.500
New Transformer.2783162 phases=3 windings=2 Xhl=1.200
~ wdg=1 bus=16088-10866557.1.2.3 conn=delta Kv=13.8 Kva=45.0 %R=0.500
~ wdg=2 bus=2783162-10866557v.1.2.3.4 conn=wye Kv=0.2200 Kva=45.0 %R=0.500
New Transformer.2204842 phases=3 windings=2 Xhl=1.200
~ wdg=1 bus=25448-7498185.1.2.3 conn=delta Kv=13.8 Kva=112.5 %R=0.500
~ wdg=2 bus=2204842-7498185v.1.2.3.4 conn=wye Kv=0.2200 Kva=112.5 %R=0.500
New Transformer.2783060 phases=1 windings=3 Xhl=1.200 Xht=1.200 Xlt=0.600
~ wdg=1 bus=16088-10867804.2 conn=wye Kv=7.9674 Kva=10.0 %R=0.500
~ wdg=2 bus=2783060-10867804v.1.4 conn=wye Kv=0.1100 Kva=10.0 %R=0.500
~ wdg=3 bus=2783060-10867804v.4.2 conn=wye Kv=0.1100 Kva=10.0 %R=0.500
New Transformer.2782784 phases=3 windings=2 Xhl=1.200
~ wdg=1 bus=16088-10867069.1.2.3 conn=delta Kv=13.8 Kva=112.5 %R=0.500
~ wdg=2 bus=2782784-10867069v.1.2.3.4 conn=wye Kv=0.2200 Kva=112.5 %R=0.500
New Transformer.3103802 phases=3 windings=2 Xhl=1.200
~ wdg=1 bus=16088-12366738.1.2.3 conn=delta Kv=13.8 Kva=112.5 %R=0.500
~ wdg=2 bus=3103802-12366738v.1.2.3.4 conn=wye Kv=0.2200 Kva=112.5 %R=0.500
New Transformer.2783042 phases=3 windings=2 Xhl=1.200
~ wdg=1 bus=16088-10867436.1.2.3 conn=delta Kv=13.8 Kva=45.0 %R=0.500
~ wdg=2 bus=2783042-10867436v.1.2.3.4 conn=wye Kv=0.2200 Kva=45.0 %R=0.500
New Transformer.2782514 phases=3 windings=2 Xhl=1.200
~ wdg=1 bus=16085-10863041.1.2.3 conn=delta Kv=13.8 Kva=45.0 %R=0.500
~ wdg=2 bus=2782514-10863041v.1.2.3.4 conn=wye Kv=0.2200 Kva=45.0 %R=0.500
New Transformer.2782496 phases=3 windings=2 Xhl=1.200
~ wdg=1 bus=16085-10863254.1.2.3 conn=delta Kv=13.8 Kva=45.0 %R=0.500
~ wdg=2 bus=2782496-10863254v.1.2.3.4 conn=wye Kv=0.2200 Kva=45.0 %R=0.500
New Transformer.2204837 phases=3 windings=2 Xhl=1.200
~ wdg=1 bus=25448-7497955.1.2.3 conn=delta Kv=13.8 Kva=112.5 %R=0.500
~ wdg=2 bus=2204837-7497955v.1.2.3.4 conn=wye Kv=0.2200 Kva=112.5 %R=0.500
New Transformer.3124189 phases=3 windings=2 Xhl=1.200
~ wdg=1 bus=16088-12502722.1.2.3 conn=delta Kv=13.8 Kva=75.0 %R=0.500
~ wdg=2 bus=3124189-12502722v.1.2.3.4 conn=wye Kv=0.2200 Kva=75.0 %R=0.500
New Transformer.2782909 phases=1 windings=3 Xhl=1.200 Xht=1.200 Xlt=0.600
~ wdg=1 bus=16088-10868290.3 conn=wye Kv=7.9674 Kva=5.0 %R=0.500
~ wdg=2 bus=2782909-10868290v.1.4 conn=wye Kv=0.1100 Kva=5.0 %R=0.500
~ wdg=3 bus=2782909-10868290v.4.2 conn=wye Kv=0.1100 Kva=5.0 %R=0.500
New Transformer.2782997 phases=3 windings=2 Xhl=1.200
~ wdg=1 bus=16088-10865798.1.2.3 conn=delta Kv=13.8 Kva=112.5 %R=0.500
~ wdg=2 bus=2782997-10865798v.1.2.3.4 conn=wye Kv=0.2200 Kva=112.5 %R=0.500
New Transformer.2783172 phases=1 windings=3 Xhl=1.200 Xht=1.200 Xlt=0.600
~ wdg=1 bus=16088-10867066.1 conn=wye Kv=7.9674 Kva=10.0 %R=0.500
~ wdg=2 bus=2783172-10867066v.1.4 conn=wye Kv=0.1100 Kva=10.0 %R=0.500
~ wdg=3 bus=2783172-10867066v.4.2 conn=wye Kv=0.1100 Kva=10.0 %R=0.500
New Transformer.2782783 phases=3 windings=2 Xhl=1.200
~ wdg=1 bus=16088-10866565.1.2.3 conn=delta Kv=13.8 Kva=112.5 %R=0.500
~ wdg=2 bus=2782783-10866565v.1.2.3.4 conn=wye Kv=0.2200 Kva=112.5 %R=0.500
New Transformer.2782713 phases=1 windings=3 Xhl=1.200 Xht=1.200 Xlt=0.600
~ wdg=1 bus=16087-10864489.2 conn=wye Kv=7.9674 Kva=5.0 %R=0.500
~ wdg=2 bus=2782713-10864489v.1.4 conn=wye Kv=0.1100 Kva=5.0 %R=0.500
~ wdg=3 bus=2782713-10864489v.4.2 conn=wye Kv=0.1100 Kva=5.0 %R=0.500
New Transformer.3121508 phases=3 windings=2 Xhl=1.200
~ wdg=1 bus=25448-12487508.1.2.3 conn=delta Kv=13.8 Kva=300.0 %R=0.500
~ wdg=2 bus=3121508-12487508v.1.2.3.4 conn=wye Kv=0.2200 Kva=300.0 %R=0.500
New Transformer.2782943 phases=3 windings=2 Xhl=1.200
~ wdg=1 bus=16088-10868289.1.2.3 conn=delta Kv=13.8 Kva=45.0 %R=0.500
~ wdg=2 bus=2782943-10868289v.1.2.3.4 conn=wye Kv=0.2200 Kva=45.0 %R=0.500
New Transformer.2782452 phases=3 windings=2 Xhl=1.200
~ wdg=1 bus=16085-10863482.1.2.3 conn=delta Kv=13.8 Kva=45.0 %R=0.500
~ wdg=2 bus=2782452-10863482v.1.2.3.4 conn=wye Kv=0.2200 Kva=45.0 %R=0.500
New Transformer.2783103 phases=3 windings=2 Xhl=1.200
~ wdg=1 bus=16088-10866234.1.2.3 conn=delta Kv=13.8 Kva=75.0 %R=0.500
~ wdg=2 bus=2783103-10866234v.1.2.3.4 conn=wye Kv=0.2200 Kva=75.0 %R=0.500
New Transformer.2782749 phases=3 windings=2 Xhl=1.200
~ wdg=1 bus=16087-10864726.1.2.3 conn=delta Kv=13.8 Kva=112.5 %R=0.500
~ wdg=2 bus=2782749-10864726v.1.2.3.4 conn=wye Kv=0.2200 Kva=112.5 %R=0.500
New Transformer.2782655 phases=3 windings=2 Xhl=1.200
~ wdg=1 bus=16087-10864724.1.2.3 conn=delta Kv=13.8 Kva=45.0 %R=0.500
~ wdg=2 bus=2782655-10864724v.1.2.3.4 conn=wye Kv=0.2200 Kva=45.0 %R=0.500
New Transformer.2782732 phases=3 windings=2 Xhl=1.200
~ wdg=1 bus=16087-10864486.1.2.3 conn=delta Kv=13.8 Kva=75.0 %R=0.500
~ wdg=2 bus=2782732-10864486v.1.2.3.4 conn=wye Kv=0.2200 Kva=75.0 %R=0.500
New Transformer.2204846 phases=3 windings=2 Xhl=1.200
~ wdg=1 bus=25448-7497952.1.2.3 conn=delta Kv=13.8 Kva=750.0 %R=0.500
~ wdg=2 bus=2204846-7497952v.1.2.3.4 conn=wye Kv=0.2200 Kva=750.0 %R=0.500
New Transformer.2782668 phases=3 windings=2 Xhl=1.200
~ wdg=1 bus=16087-10864907.1.2.3 conn=delta Kv=13.8 Kva=112.5 %R=0.500
~ wdg=2 bus=2782668-10864907v.1.2.3.4 conn=wye Kv=0.2200 Kva=112.5 %R=0.500
New Transformer.2205333 phases=3 windings=2 Xhl=1.200
~ wdg=1 bus=25448-7498829.1.2.3 conn=delta Kv=13.8 Kva=112.5 %R=0.500
~ wdg=2 bus=2205333-7498829v.1.2.3.4 conn=wye Kv=0.2200 Kva=112.5 %R=0.500
New Transformer.2782718 phases=3 windings=2 Xhl=1.200
~ wdg=1 bus=16087-10864732.1.2.3 conn=delta Kv=13.8 Kva=112.5 %R=0.500
~ wdg=2 bus=2782718-10864732v.1.2.3.4 conn=wye Kv=0.2200 Kva=112.5 %R=0.500
New Transformer.2782720 phases=3 windings=2 Xhl=1.200
~ wdg=1 bus=16087-10864813.1.2.3 conn=delta Kv=13.8 Kva=75.0 %R=0.500
~ wdg=2 bus=2782720-10864813v.1.2.3.4 conn=wye Kv=0.2200 Kva=75.0 %R=0.500
New Transformer.2782526 phases=3 windings=2 Xhl=1.200
~ wdg=1 bus=16085-10863277.1.2.3 conn=delta Kv=13.8 Kva=45.0 %R=0.500
~ wdg=2 bus=2782526-10863277v.1.2.3.4 conn=wye Kv=0.2200 Kva=45.0 %R=0.500
New Transformer.2782443 phases=3 windings=2 Xhl=1.200
~ wdg=1 bus=16085-10863150.1.2.3 conn=delta Kv=13.8 Kva=30.0 %R=0.500
~ wdg=2 bus=2782443-10863150v.1.2.3.4 conn=wye Kv=0.2200 Kva=30.0 %R=0.500
New Transformer.2782464 phases=3 windings=2 Xhl=1.200
~ wdg=1 bus=16085-10863153.1.2.3 conn=delta Kv=13.8 Kva=30.0 %R=0.500
~ wdg=2 bus=2782464-10863153v.1.2.3.4 conn=wye Kv=0.2200 Kva=30.0 %R=0.500
New Transformer.2782681 phases=3 windings=2 Xhl=1.200
~ wdg=1 bus=16087-10864725.1.2.3 conn=delta Kv=13.8 Kva=45.0 %R=0.500
~ wdg=2 bus=2782681-10864725v.1.2.3.4 conn=wye Kv=0.2200 Kva=45.0 %R=0.500
New Transformer.2782523 phases=3 windings=2 Xhl=1.200
~ wdg=1 bus=16085-10863595.1.2.3 conn=delta Kv=13.8 Kva=112.5 %R=0.500
~ wdg=2 bus=2782523-10863595v.1.2.3.4 conn=wye Kv=0.2200 Kva=112.5 %R=0.500
New Transformer.2782785 phases=3 windings=2 Xhl=1.200
~ wdg=1 bus=16088-10867068.1.2.3 conn=delta Kv=13.8 Kva=112.5 %R=0.500
~ wdg=2 bus=2782785-10867068v.1.2.3.4 conn=wye Kv=0.2200 Kva=112.5 %R=0.500
New Transformer.2782762 phases=3 windings=2 Xhl=1.200
~ wdg=1 bus=16087-10864638.1.2.3 conn=delta Kv=13.8 Kva=112.5 %R=0.500
~ wdg=2 bus=2782762-10864638v.1.2.3.4 conn=wye Kv=0.2200 Kva=112.5 %R=0.500
New Transformer.2782474 phases=3 windings=2 Xhl=1.200
~ wdg=1 bus=16085-10863366.1.2.3 conn=delta Kv=13.8 Kva=45.0 %R=0.500
~ wdg=2 bus=2782474-10863366v.1.2.3.4 conn=wye Kv=0.2200 Kva=45.0 %R=0.500
New Transformer.3050041 phases=3 windings=2 Xhl=1.200
~ wdg=1 bus=16085-12024565.1.2.3 conn=delta Kv=13.8 Kva=225.0 %R=0.500
~ wdg=2 bus=3050041-12024565v.1.2.3.4 conn=wye Kv=0.2200 Kva=225.0 %R=0.500
New Transformer.3171996 phases=3 windings=2 Xhl=1.200
~ wdg=1 bus=16085-12821634.1.2.3 conn=delta Kv=13.8 Kva=75.0 %R=0.500
~ wdg=2 bus=3171996-12821634v.1.2.3.4 conn=wye Kv=0.2200 Kva=75.0 %R=0.500
New Transformer.CSO-T-2 phases=3 windings=2 Xhl=1.200
~ wdg=1 bus=cso-t-2-m.1.2.3 conn=delta Kv=13.8 Kva=65000.0 %R=0.250
~ wdg=2 bus=cso-t-2-j.1.2.3.4 conn=wye Kv=34.5000 Kva=65000.0 %R=0.250
New Transformer.2943128 phases=1 windings=3 Xhl=1.200 Xht=1.200 Xlt=0.600
~ wdg=1 bus=25448-11465930.3 conn=wye Kv=7.9674 Kva=5.0 %R=0.500
~ wdg=2 bus=2943128-11465930v.1.4 conn=wye Kv=0.1100 Kva=5.0 %R=0.500
~ wdg=3 bus=2943128-11465930v.4.2 conn=wye Kv=0.1100 Kva=5.0 %R=0.500
New Transformer.3020542 phases=1 windings=3 Xhl=1.200 Xht=1.200 Xlt=0.600
~ wdg=1 bus=25448-11839688cf.3 conn=wye Kv=7.9674 Kva=10.0 %R=0.500
~ wdg=2 bus=3020542-11839718.1.4 conn=wye Kv=0.1100 Kva=10.0 %R=0.500
~ wdg=3 bus=3020542-11839718.4.2 conn=wye Kv=0.1100 Kva=10.0 %R=0.500
New Transformer.3088605 phases=1 windings=3 Xhl=1.200 Xht=1.200 Xlt=0.600
~ wdg=1 bus=25448-12272545cf.1 conn=wye Kv=7.9674 Kva=5.0 %R=0.500
~ wdg=2 bus=3088605-12272545v.1.4 conn=wye Kv=0.1100 Kva=5.0 %R=0.500
~ wdg=3 bus=3088605-12272545v.4.2 conn=wye Kv=0.1100 Kva=5.0 %R=0.500
New Transformer.3091947 phases=1 windings=3 Xhl=1.200 Xht=1.200 Xlt=0.600
~ wdg=1 bus=25448-12297266cf.3 conn=wye Kv=7.9674 Kva=5.0 %R=0.500
~ wdg=2 bus=3091947-12297266v.1.4 conn=wye Kv=0.1100 Kva=5.0 %R=0.500
~ wdg=3 bus=3091947-12297266v.4.2 conn=wye Kv=0.1100 Kva=5.0 %R=0.500
New Transformer.2922460 phases=1 windings=3 Xhl=1.200 Xht=1.200 Xlt=0.600
~ wdg=1 bus=25448-11412145.3 conn=wye Kv=7.9674 Kva=5.0 %R=0.500
~ wdg=2 bus=2922460-11412145v.1.4 conn=wye Kv=0.1100 Kva=5.0 %R=0.500
~ wdg=3 bus=2922460-11412145v.4.2 conn=wye Kv=0.1100 Kva=5.0 %R=0.500
New Transformer.2949992 phases=1 windings=3 Xhl=1.200 Xht=1.200 Xlt=0.600
~ wdg=1 bus=16088-11499813.3 conn=wye Kv=7.9674 Kva=5.0 %R=0.500
~ wdg=2 bus=2949992-11499813v.1.4 conn=wye Kv=0.1100 Kva=5.0 %R=0.500
~ wdg=3 bus=2949992-11499813v.4.2 conn=wye Kv=0.1100 Kva=5.0 %R=0.500
New Transformer.3065288 phases=1 windings=3 Xhl=1.200 Xht=1.200 Xlt=0.600
~ wdg=1 bus=25448-12087377cf.2 conn=wye Kv=7.9674 Kva=5.0 %R=0.500
~ wdg=2 bus=3065288-12110364.1.4 conn=wye Kv=0.1100 Kva=5.0 %R=0.500
~ wdg=3 bus=3065288-12110364.4.2 conn=wye Kv=0.1100 Kva=5.0 %R=0.500
New Transformer.3088502 phases=1 windings=3 Xhl=1.200 Xht=1.200 Xlt=0.600
~ wdg=1 bus=25448-12275442.1 conn=wye Kv=7.9674 Kva=5.0 %R=0.500
~ wdg=2 bus=3088502-12275442v.1.4 conn=wye Kv=0.1100 Kva=5.0 %R=0.500
~ wdg=3 bus=3088502-12275442v.4.2 conn=wye Kv=0.1100 Kva=5.0 %R=0.500
New Transformer.3088621 phases=1 windings=3 Xhl=1.200 Xht=1.200 Xlt=0.600
~ wdg=1 bus=25448-12272492cf.1 conn=wye Kv=7.9674 Kva=5.0 %R=0.500
~ wdg=2 bus=3088621-12272492v.1.4 conn=wye Kv=0.1100 Kva=5.0 %R=0.500
~ wdg=3 bus=3088621-12272492v.4.2 conn=wye Kv=0.1100 Kva=5.0 %R=0.500
New Transformer.3137978 phases=3 windings=2 Xhl=1.200
~ wdg=1 bus=16085-12583307.1.2.3 conn=delta Kv=13.8 Kva=112.5 %R=0.500
~ wdg=2 bus=3137978-12583307v.1.2.3.4 conn=wye Kv=0.2200 Kva=112.5 %R=0.500
New Transformer.2898082 phases=1 windings=3 Xhl=1.200 Xht=1.200 Xlt=0.600
~ wdg=1 bus=16088-11374119.1 conn=wye Kv=7.9674 Kva=5.0 %R=0.500
~ wdg=2 bus=2898082-11374119v.1.4 conn=wye Kv=0.1100 Kva=5.0 %R=0.500
~ wdg=3 bus=2898082-11374119v.4.2 conn=wye Kv=0.1100 Kva=5.0 %R=0.500
New Transformer.2934649 phases=1 windings=3 Xhl=1.200 Xht=1.200 Xlt=0.600
~ wdg=1 bus=16088-11434013.1 conn=wye Kv=7.9674 Kva=5.0 %R=0.500
~ wdg=2 bus=2934649-11434013v.1.4 conn=wye Kv=0.1100 Kva=5.0 %R=0.500
~ wdg=3 bus=2934649-11434013v.4.2 conn=wye Kv=0.1100 Kva=5.0 %R=0.500
New Transformer.2935810 phases=1 windings=3 Xhl=1.200 Xht=1.200 Xlt=0.600
~ wdg=1 bus=25448-11437371.2 conn=wye Kv=7.9674 Kva=5.0 %R=0.500
~ wdg=2 bus=2935810-11437371v.1.4 conn=wye Kv=0.1100 Kva=5.0 %R=0.500
~ wdg=3 bus=2935810-11437371v.4.2 conn=wye Kv=0.1100 Kva=5.0 %R=0.500
New Transformer.3087935 phases=1 windings=3 Xhl=1.200 Xht=1.200 Xlt=0.600
~ wdg=1 bus=25448-12339115.1 conn=wye Kv=7.9674 Kva=5.0 %R=0.500
~ wdg=2 bus=3087935-12339115v.1.4 conn=wye Kv=0.1100 Kva=5.0 %R=0.500
~ wdg=3 bus=3087935-12339115v.4.2 conn=wye Kv=0.1100 Kva=5.0 %R=0.500
New Transformer.3087925 phases=1 windings=3 Xhl=1.200 Xht=1.200 Xlt=0.600
~ wdg=1 bus=25448-12271400.1 conn=wye Kv=7.9674 Kva=5.0 %R=0.500
~ wdg=2 bus=3087925-12271400v.1.4 conn=wye Kv=0.1100 Kva=5.0 %R=0.500
~ wdg=3 bus=3087925-12271400v.4.2 conn=wye Kv=0.1100 Kva=5.0 %R=0.500
New Transformer.3098619 phases=1 windings=3 Xhl=1.200 Xht=1.200 Xlt=0.600
~ wdg=1 bus=25448-12340084.1 conn=wye Kv=7.9674 Kva=5.0 %R=0.500
~ wdg=2 bus=3098619-12340084v.1.4 conn=wye Kv=0.1100 Kva=5.0 %R=0.500
~ wdg=3 bus=3098619-12340084v.4.2 conn=wye Kv=0.1100 Kva=5.0 %R=0.500
New Transformer.2898091 phases=1 windings=3 Xhl=1.200 Xht=1.200 Xlt=0.600
~ wdg=1 bus=16088-11374160cf.1 conn=wye Kv=7.9674 Kva=5.0 %R=0.500
~ wdg=2 bus=2898091-11374160v.1.4 conn=wye Kv=0.1100 Kva=5.0 %R=0.500
~ wdg=3 bus=2898091-11374160v.4.2 conn=wye Kv=0.1100 Kva=5.0 %R=0.500
New Transformer.2901282 phases=1 windings=3 Xhl=1.200 Xht=1.200 Xlt=0.600
~ wdg=1 bus=16088-11379611.3 conn=wye Kv=7.9674 Kva=10.0 %R=0.500
~ wdg=2 bus=2901282-11379611v.1.4 conn=wye Kv=0.1100 Kva=10.0 %R=0.500
~ wdg=3 bus=2901282-11379611v.4.2 conn=wye Kv=0.1100 Kva=10.0 %R=0.500
New Transformer.2922734 phases=1 windings=3 Xhl=1.200 Xht=1.200 Xlt=0.600
~ wdg=1 bus=16088-11412781.2 conn=wye Kv=7.9674 Kva=5.0 %R=0.500
~ wdg=2 bus=2922734-11412781v.1.4 conn=wye Kv=0.1100 Kva=5.0 %R=0.500
~ wdg=3 bus=2922734-11412781v.4.2 conn=wye Kv=0.1100 Kva=5.0 %R=0.500
New Transformer.2935939 phases=1 windings=3 Xhl=1.200 Xht=1.200 Xlt=0.600
~ wdg=1 bus=25448-11438335.2 conn=wye Kv=7.9674 Kva=5.0 %R=0.500
~ wdg=2 bus=2935939-11438335v.1.4 conn=wye Kv=0.1100 Kva=5.0 %R=0.500
~ wdg=3 bus=2935939-11438335v.4.2 conn=wye Kv=0.1100 Kva=5.0 %R=0.500
New Transformer.3088489 phases=1 windings=3 Xhl=1.200 Xht=1.200 Xlt=0.600
~ wdg=1 bus=25448-12275420.1 conn=wye Kv=7.9674 Kva=5.0 %R=0.500
~ wdg=2 bus=3088489-12275420v.1.4 conn=wye Kv=0.1100 Kva=5.0 %R=0.500
~ wdg=3 bus=3088489-12275420v.4.2 conn=wye Kv=0.1100 Kva=5.0 %R=0.500
New Transformer.3087933 phases=1 windings=3 Xhl=1.200 Xht=1.200 Xlt=0.600
~ wdg=1 bus=25448-12271419.1 conn=wye Kv=7.9674 Kva=10.0 %R=0.500
~ wdg=2 bus=3087933-12271419v.1.4 conn=wye Kv=0.1100 Kva=10.0 %R=0.500
~ wdg=3 bus=3087933-12271419v.4.2 conn=wye Kv=0.1100 Kva=10.0 %R=0.500
New Transformer.3088518 phases=1 windings=3 Xhl=1.200 Xht=1.200 Xlt=0.600
~ wdg=1 bus=25448-12272907cf.1 conn=wye Kv=7.9674 Kva=5.0 %R=0.500
~ wdg=2 bus=3088518-12272907v.1.4 conn=wye Kv=0.1100 Kva=5.0 %R=0.500
~ wdg=3 bus=3088518-12272907v.4.2 conn=wye Kv=0.1100 Kva=5.0 %R=0.500
New Transformer.2205294 phases=1 windings=3 Xhl=1.200 Xht=1.200 Xlt=0.600
~ wdg=1 bus=25448-7500253cf.1 conn=wye Kv=7.9674 Kva=5.0 %R=0.500
~ wdg=2 bus=2205294-7500253v.1.4 conn=wye Kv=0.1100 Kva=5.0 %R=0.500
~ wdg=3 bus=2205294-7500253v.4.2 conn=wye Kv=0.1100 Kva=5.0 %R=0.500
New Transformer.3088662 phases=1 windings=3 Xhl=1.200 Xht=1.200 Xlt=0.600
~ wdg=1 bus=25448-12272462cf.1 conn=wye Kv=7.9674 Kva=5.0 %R=0.500
~ wdg=2 bus=3088662-12272462v.1.4 conn=wye Kv=0.1100 Kva=5.0 %R=0.500
~ wdg=3 bus=3088662-12272462v.4.2 conn=wye Kv=0.1100 Kva=5.0 %R=0.500
New Transformer.2922487 phases=1 windings=3 Xhl=1.200 Xht=1.200 Xlt=0.600
~ wdg=1 bus=25448-11412075.3 conn=wye Kv=7.9674 Kva=5.0 %R=0.500
~ wdg=2 bus=2922487-11412075v.1.4 conn=wye Kv=0.1100 Kva=5.0 %R=0.500
~ wdg=3 bus=2922487-11412075v.4.2 conn=wye Kv=0.1100 Kva=5.0 %R=0.500
New Transformer.2922547 phases=1 windings=3 Xhl=1.200 Xht=1.200 Xlt=0.600
~ wdg=1 bus=25448-11412527.3 conn=wye Kv=7.9674 Kva=5.0 %R=0.500
~ wdg=2 bus=2922547-11463295.1.4 conn=wye Kv=0.1100 Kva=5.0 %R=0.500
~ wdg=3 bus=2922547-11463295.4.2 conn=wye Kv=0.1100 Kva=5.0 %R=0.500
New Transformer.3120317 phases=1 windings=3 Xhl=1.200 Xht=1.200 Xlt=0.600
~ wdg=1 bus=25448-11410929.2 conn=wye Kv=7.9674 Kva=10.0 %R=0.500
~ wdg=2 bus=3120317-11410929v.1.4 conn=wye Kv=0.1100 Kva=10.0 %R=0.500
~ wdg=3 bus=3120317-11410929v.4.2 conn=wye Kv=0.1100 Kva=10.0 %R=0.500
New Transformer.2935921 phases=1 windings=3 Xhl=1.200 Xht=1.200 Xlt=0.600
~ wdg=1 bus=25448-11438269.2 conn=wye Kv=7.9674 Kva=5.0 %R=0.500
~ wdg=2 bus=2935921-11438269v.1.4 conn=wye Kv=0.1100 Kva=5.0 %R=0.500
~ wdg=3 bus=2935921-11438269v.4.2 conn=wye Kv=0.1100 Kva=5.0 %R=0.500
New Transformer.3173482 phases=3 windings=2 Xhl=1.200
~ wdg=1 bus=25448-12851026cf.1.2.3 conn=delta Kv=13.8 Kva=75.0 %R=0.500
~ wdg=2 bus=3173482-12851026v.1.2.3.4 conn=wye Kv=0.2200 Kva=75.0 %R=0.500
New Transformer.3088435 phases=1 windings=3 Xhl=1.200 Xht=1.200 Xlt=0.600
~ wdg=1 bus=25448-12275461cf.1 conn=wye Kv=7.9674 Kva=5.0 %R=0.500
~ wdg=2 bus=3088435-12275461v.1.4 conn=wye Kv=0.1100 Kva=5.0 %R=0.500
~ wdg=3 bus=3088435-12275461v.4.2 conn=wye Kv=0.1100 Kva=5.0 %R=0.500
New Transformer.3087927 phases=1 windings=3 Xhl=1.200 Xht=1.200 Xlt=0.600
~ wdg=1 bus=25448-12271413.1 conn=wye Kv=7.9674 Kva=10.0 %R=0.500
~ wdg=2 bus=3087927-12271413v.1.4 conn=wye Kv=0.1100 Kva=10.0 %R=0.500
~ wdg=3 bus=3087927-12271413v.4.2 conn=wye Kv=0.1100 Kva=10.0 %R=0.500
New Transformer.3088360 phases=1 windings=3 Xhl=1.200 Xht=1.200 Xlt=0.600
~ wdg=1 bus=25448-12275706cf.1 conn=wye Kv=7.9674 Kva=5.0 %R=0.500
~ wdg=2 bus=3088360-12275706v.1.4 conn=wye Kv=0.1100 Kva=5.0 %R=0.500
~ wdg=3 bus=3088360-12275706v.4.2 conn=wye Kv=0.1100 Kva=5.0 %R=0.500
New Transformer.3088620 phases=1 windings=3 Xhl=1.200 Xht=1.200 Xlt=0.600
~ wdg=1 bus=25448-12272502cf.1 conn=wye Kv=7.9674 Kva=5.0 %R=0.500
~ wdg=2 bus=3088620-12272502v.1.4 conn=wye Kv=0.1100 Kva=5.0 %R=0.500
~ wdg=3 bus=3088620-12272502v.4.2 conn=wye Kv=0.1100 Kva=5.0 %R=0.500
New Transformer.3088354 phases=1 windings=3 Xhl=1.200 Xht=1.200 Xlt=0.600
~ wdg=1 bus=25448-12275653cf.1 conn=wye Kv=7.9674 Kva=5.0 %R=0.500
~ wdg=2 bus=3088354-12275653v.1.4 conn=wye Kv=0.1100 Kva=5.0 %R=0.500
~ wdg=3 bus=3088354-12275653v.4.2 conn=wye Kv=0.1100 Kva=5.0 %R=0.500
New Transformer.3088174 phases=1 windings=3 Xhl=1.200 Xht=1.200 Xlt=0.600
~ wdg=1 bus=25448-12275966.1 conn=wye Kv=7.9674 Kva=5.0 %R=0.500
~ wdg=2 bus=3088174-12275966v.1.4 conn=wye Kv=0.1100 Kva=5.0 %R=0.500
~ wdg=3 bus=3088174-12275966v.4.2 conn=wye Kv=0.1100 Kva=5.0 %R=0.500
New Transformer.3090761 phases=1 windings=3 Xhl=1.200 Xht=1.200 Xlt=0.600
~ wdg=1 bus=25448-12292986.3 conn=wye Kv=7.9674 Kva=5.0 %R=0.500
~ wdg=2 bus=3090761-12292986v.1.4 conn=wye Kv=0.1100 Kva=5.0 %R=0.500
~ wdg=3 bus=3090761-12292986v.4.2 conn=wye Kv=0.1100 Kva=5.0 %R=0.500
New Transformer.3090722 phases=1 windings=3 Xhl=1.200 Xht=1.200 Xlt=0.600
~ wdg=1 bus=25448-12292718.3 conn=wye Kv=7.9674 Kva=5.0 %R=0.500
~ wdg=2 bus=3090722-12292718v.1.4 conn=wye Kv=0.1100 Kva=5.0 %R=0.500
~ wdg=3 bus=3090722-12292718v.4.2 conn=wye Kv=0.1100 Kva=5.0 %R=0.500
New Transformer.2901209 phases=1 windings=3 Xhl=1.200 Xht=1.200 Xlt=0.600
~ wdg=1 bus=16088-11379487.3 conn=wye Kv=7.9674 Kva=5.0 %R=0.500
~ wdg=2 bus=2901209-11379487v.1.4 conn=wye Kv=0.1100 Kva=5.0 %R=0.500
~ wdg=3 bus=2901209-11379487v.4.2 conn=wye Kv=0.1100 Kva=5.0 %R=0.500
New Transformer.2949964 phases=1 windings=3 Xhl=1.200 Xht=1.200 Xlt=0.600
~ wdg=1 bus=16088-11499693.3 conn=wye Kv=7.9674 Kva=5.0 %R=0.500
~ wdg=2 bus=2949964-11499693v.1.4 conn=wye Kv=0.1100 Kva=5.0 %R=0.500
~ wdg=3 bus=2949964-11499693v.4.2 conn=wye Kv=0.1100 Kva=5.0 %R=0.500
New Transformer.3090982 phases=1 windings=3 Xhl=1.200 Xht=1.200 Xlt=0.600
~ wdg=1 bus=25448-12294140.1 conn=wye Kv=7.9674 Kva=5.0 %R=0.500
~ wdg=2 bus=3090982-12294140v.1.4 conn=wye Kv=0.1100 Kva=5.0 %R=0.500
~ wdg=3 bus=3090982-12294140v.4.2 conn=wye Kv=0.1100 Kva=5.0 %R=0.500
New Transformer.3098291 phases=1 windings=3 Xhl=1.200 Xht=1.200 Xlt=0.600
~ wdg=1 bus=25448-12338886.1 conn=wye Kv=7.9674 Kva=5.0 %R=0.500
~ wdg=2 bus=3098291-12338886v.1.4 conn=wye Kv=0.1100 Kva=5.0 %R=0.500
~ wdg=3 bus=3098291-12338886v.4.2 conn=wye Kv=0.1100 Kva=5.0 %R=0.500
New Transformer.2897935 phases=1 windings=3 Xhl=1.200 Xht=1.200 Xlt=0.600
~ wdg=1 bus=16088-11373952.1 conn=wye Kv=7.9674 Kva=5.0 %R=0.500
~ wdg=2 bus=2897935-11373952v.1.4 conn=wye Kv=0.1100 Kva=5.0 %R=0.500
~ wdg=3 bus=2897935-11373952v.4.2 conn=wye Kv=0.1100 Kva=5.0 %R=0.500
New Transformer.2901685 phases=1 windings=3 Xhl=1.200 Xht=1.200 Xlt=0.600
~ wdg=1 bus=25448-11380883.3 conn=wye Kv=7.9674 Kva=5.0 %R=0.500
~ wdg=2 bus=2901685-11380883v.1.4 conn=wye Kv=0.1100 Kva=5.0 %R=0.500
~ wdg=3 bus=2901685-11380883v.4.2 conn=wye Kv=0.1100 Kva=5.0 %R=0.500
New Transformer.2901977 phases=1 windings=3 Xhl=1.200 Xht=1.200 Xlt=0.600
~ wdg=1 bus=25448-11381012cf.3 conn=wye Kv=7.9674 Kva=5.0 %R=0.500
~ wdg=2 bus=2901977-11381012v.1.4 conn=wye Kv=0.1100 Kva=5.0 %R=0.500
~ wdg=3 bus=2901977-11381012v.4.2 conn=wye Kv=0.1100 Kva=5.0 %R=0.500
New Transformer.2926084 phases=1 windings=3 Xhl=1.200 Xht=1.200 Xlt=0.600
~ wdg=1 bus=25448-11411807.3 conn=wye Kv=7.9674 Kva=5.0 %R=0.500
~ wdg=2 bus=2926084-11411807v.1.4 conn=wye Kv=0.1100 Kva=5.0 %R=0.500
~ wdg=3 bus=2926084-11411807v.4.2 conn=wye Kv=0.1100 Kva=5.0 %R=0.500
New Transformer.3032956 phases=1 windings=3 Xhl=1.200 Xht=1.200 Xlt=0.600
~ wdg=1 bus=25448-11829651cf.2 conn=wye Kv=7.9674 Kva=5.0 %R=0.500
~ wdg=2 bus=3032956-11829651v.1.4 conn=wye Kv=0.1100 Kva=5.0 %R=0.500
~ wdg=3 bus=3032956-11829651v.4.2 conn=wye Kv=0.1100 Kva=5.0 %R=0.500
New Transformer.3090799 phases=1 windings=3 Xhl=1.200 Xht=1.200 Xlt=0.600
~ wdg=1 bus=25448-12293341.3 conn=wye Kv=7.9674 Kva=5.0 %R=0.500
~ wdg=2 bus=3090799-12293341v.1.4 conn=wye Kv=0.1100 Kva=5.0 %R=0.500
~ wdg=3 bus=3090799-12293341v.4.2 conn=wye Kv=0.1100 Kva=5.0 %R=0.500
New Transformer.2922564 phases=1 windings=3 Xhl=1.200 Xht=1.200 Xlt=0.600
~ wdg=1 bus=25448-11411930.3 conn=wye Kv=7.9674 Kva=5.0 %R=0.500
~ wdg=2 bus=2922564-11411930v.1.4 conn=wye Kv=0.1100 Kva=5.0 %R=0.500
~ wdg=3 bus=2922564-11411930v.4.2 conn=wye Kv=0.1100 Kva=5.0 %R=0.500
New Transformer.2922200 phases=1 windings=3 Xhl=1.200 Xht=1.200 Xlt=0.600
~ wdg=1 bus=25448-11410946.2 conn=wye Kv=7.9674 Kva=5.0 %R=0.500
~ wdg=2 bus=2922200-11410946v.1.4 conn=wye Kv=0.1100 Kva=5.0 %R=0.500
~ wdg=3 bus=2922200-11410946v.4.2 conn=wye Kv=0.1100 Kva=5.0 %R=0.500
New Transformer.2938916 phases=1 windings=3 Xhl=1.200 Xht=1.200 Xlt=0.600
~ wdg=1 bus=25448-11450829.2 conn=wye Kv=7.9674 Kva=5.0 %R=0.500
~ wdg=2 bus=2938916-11450829v.1.4 conn=wye Kv=0.1100 Kva=5.0 %R=0.500
~ wdg=3 bus=2938916-11450829v.4.2 conn=wye Kv=0.1100 Kva=5.0 %R=0.500
New Transformer.3088408 phases=1 windings=3 Xhl=1.200 Xht=1.200 Xlt=0.600
~ wdg=1 bus=25448-12275572cf.1 conn=wye Kv=7.9674 Kva=5.0 %R=0.500
~ wdg=2 bus=3088408-12275572v.1.4 conn=wye Kv=0.1100 Kva=5.0 %R=0.500
~ wdg=3 bus=3088408-12275572v.4.2 conn=wye Kv=0.1100 Kva=5.0 %R=0.500
New Transformer.3088623 phases=1 windings=3 Xhl=1.200 Xht=1.200 Xlt=0.600
~ wdg=1 bus=25448-12272501cf.1 conn=wye Kv=7.9674 Kva=5.0 %R=0.500
~ wdg=2 bus=3088623-12272501v.1.4 conn=wye Kv=0.1100 Kva=5.0 %R=0.500
~ wdg=3 bus=3088623-12272501v.4.2 conn=wye Kv=0.1100 Kva=5.0 %R=0.500
New Transformer.2901548 phases=1 windings=3 Xhl=1.200 Xht=1.200 Xlt=0.600
~ wdg=1 bus=25448-11380540.3 conn=wye Kv=7.9674 Kva=5.0 %R=0.500
~ wdg=2 bus=2901548-11380540v.1.4 conn=wye Kv=0.1100 Kva=5.0 %R=0.500
~ wdg=3 bus=2901548-11380540v.4.2 conn=wye Kv=0.1100 Kva=5.0 %R=0.500
New Transformer.3030416 phases=1 windings=3 Xhl=1.200 Xht=1.200 Xlt=0.600
~ wdg=1 bus=25448-11821642.2 conn=wye Kv=7.9674 Kva=5.0 %R=0.500
~ wdg=2 bus=3030416-11821642v.1.4 conn=wye Kv=0.1100 Kva=5.0 %R=0.500
~ wdg=3 bus=3030416-11821642v.4.2 conn=wye Kv=0.1100 Kva=5.0 %R=0.500
New Transformer.3028848 phases=1 windings=3 Xhl=1.200 Xht=1.200 Xlt=0.600
~ wdg=1 bus=25448-11889763.3 conn=wye Kv=7.9674 Kva=5.0 %R=0.500
~ wdg=2 bus=3028848-11889763v.1.4 conn=wye Kv=0.1100 Kva=5.0 %R=0.500
~ wdg=3 bus=3028848-11889763v.4.2 conn=wye Kv=0.1100 Kva=5.0 %R=0.500
New Transformer.3088157 phases=1 windings=3 Xhl=1.200 Xht=1.200 Xlt=0.600
~ wdg=1 bus=25448-12276338.1 conn=wye Kv=7.9674 Kva=5.0 %R=0.500
~ wdg=2 bus=3088157-12276338v.1.4 conn=wye Kv=0.1100 Kva=5.0 %R=0.500
~ wdg=3 bus=3088157-12276338v.4.2 conn=wye Kv=0.1100 Kva=5.0 %R=0.500
New Transformer.3098615 phases=1 windings=3 Xhl=1.200 Xht=1.200 Xlt=0.600
~ wdg=1 bus=25448-12340036.1 conn=wye Kv=7.9674 Kva=5.0 %R=0.500
~ wdg=2 bus=3098615-12340036v.1.4 conn=wye Kv=0.1100 Kva=5.0 %R=0.500
~ wdg=3 bus=3098615-12340036v.4.2 conn=wye Kv=0.1100 Kva=5.0 %R=0.500
New Transformer.2897886 phases=1 windings=3 Xhl=1.200 Xht=1.200 Xlt=0.600
~ wdg=1 bus=16088-11373919.1 conn=wye Kv=7.9674 Kva=5.0 %R=0.500
~ wdg=2 bus=2897886-11373919v.1.4 conn=wye Kv=0.1100 Kva=5.0 %R=0.500
~ wdg=3 bus=2897886-11373919v.4.2 conn=wye Kv=0.1100 Kva=5.0 %R=0.500
New Transformer.3020480 phases=1 windings=3 Xhl=1.200 Xht=1.200 Xlt=0.600
~ wdg=1 bus=25448-11839069cf.2 conn=wye Kv=7.9674 Kva=5.0 %R=0.500
~ wdg=2 bus=3020480-11839069v.1.4 conn=wye Kv=0.1100 Kva=5.0 %R=0.500
~ wdg=3 bus=3020480-11839069v.4.2 conn=wye Kv=0.1100 Kva=5.0 %R=0.500
New Transformer.3028841 phases=1 windings=3 Xhl=1.200 Xht=1.200 Xlt=0.600
~ wdg=1 bus=25448-11889745.3 conn=wye Kv=7.9674 Kva=5.0 %R=0.500
~ wdg=2 bus=3028841-11889745v.1.4 conn=wye Kv=0.1100 Kva=5.0 %R=0.500
~ wdg=3 bus=3028841-11889745v.4.2 conn=wye Kv=0.1100 Kva=5.0 %R=0.500
New Transformer.3087951 phases=1 windings=3 Xhl=1.200 Xht=1.200 Xlt=0.600
~ wdg=1 bus=25448-12271491.1 conn=wye Kv=7.9674 Kva=5.0 %R=0.500
~ wdg=2 bus=3087951-12271491v.1.4 conn=wye Kv=0.1100 Kva=5.0 %R=0.500
~ wdg=3 bus=3087951-12271491v.4.2 conn=wye Kv=0.1100 Kva=5.0 %R=0.500
New Transformer.3088514 phases=1 windings=3 Xhl=1.200 Xht=1.200 Xlt=0.600
~ wdg=1 bus=25448-12272864cf.1 conn=wye Kv=7.9674 Kva=5.0 %R=0.500
~ wdg=2 bus=3088514-12272864v.1.4 conn=wye Kv=0.1100 Kva=5.0 %R=0.500
~ wdg=3 bus=3088514-12272864v.4.2 conn=wye Kv=0.1100 Kva=5.0 %R=0.500
New Transformer.3088414 phases=1 windings=3 Xhl=1.200 Xht=1.200 Xlt=0.600
~ wdg=1 bus=25448-12275586cf.1 conn=wye Kv=7.9674 Kva=5.0 %R=0.500
~ wdg=2 bus=3088414-12275586v.1.4 conn=wye Kv=0.1100 Kva=5.0 %R=0.500
~ wdg=3 bus=3088414-12275586v.4.2 conn=wye Kv=0.1100 Kva=5.0 %R=0.500
New Transformer.3089262 phases=3 windings=2 Xhl=1.200
~ wdg=1 bus=16088-12284414cf.1.2.3 conn=delta Kv=13.8 Kva=75.0 %R=0.500
~ wdg=2 bus=3089262-12284477.1.2.3.4 conn=wye Kv=0.2200 Kva=75.0 %R=0.500
New Transformer.3090705 phases=1 windings=3 Xhl=1.200 Xht=1.200 Xlt=0.600
~ wdg=1 bus=25448-12292690.3 conn=wye Kv=7.9674 Kva=5.0 %R=0.500
~ wdg=2 bus=3090705-12292690v.1.4 conn=wye Kv=0.1100 Kva=5.0 %R=0.500
~ wdg=3 bus=3090705-12292690v.4.2 conn=wye Kv=0.1100 Kva=5.0 %R=0.500
New Transformer.2898095 phases=1 windings=3 Xhl=1.200 Xht=1.200 Xlt=0.600
~ wdg=1 bus=16088-11374172.1 conn=wye Kv=7.9674 Kva=5.0 %R=0.500
~ wdg=2 bus=2898095-11374172v.1.4 conn=wye Kv=0.1100 Kva=5.0 %R=0.500
~ wdg=3 bus=2898095-11374172v.4.2 conn=wye Kv=0.1100 Kva=5.0 %R=0.500
New Transformer.2901478 phases=1 windings=3 Xhl=1.200 Xht=1.200 Xlt=0.600
~ wdg=1 bus=25448-11380276.2 conn=wye Kv=7.9674 Kva=5.0 %R=0.500
~ wdg=2 bus=2901478-11380276v.1.4 conn=wye Kv=0.1100 Kva=5.0 %R=0.500
~ wdg=3 bus=2901478-11380276v.4.2 conn=wye Kv=0.1100 Kva=5.0 %R=0.500
New Transformer.3032993 phases=1 windings=3 Xhl=1.200 Xht=1.200 Xlt=0.600
~ wdg=1 bus=25448-11829730cf.2 conn=wye Kv=7.9674 Kva=5.0 %R=0.500
~ wdg=2 bus=3032993-11829730v.1.4 conn=wye Kv=0.1100 Kva=5.0 %R=0.500
~ wdg=3 bus=3032993-11829730v.4.2 conn=wye Kv=0.1100 Kva=5.0 %R=0.500
New Transformer.3028850 phases=1 windings=3 Xhl=1.200 Xht=1.200 Xlt=0.600
~ wdg=1 bus=25448-11889732.3 conn=wye Kv=7.9674 Kva=5.0 %R=0.500
~ wdg=2 bus=3028850-11889732v.1.4 conn=wye Kv=0.1100 Kva=5.0 %R=0.500
~ wdg=3 bus=3028850-11889732v.4.2 conn=wye Kv=0.1100 Kva=5.0 %R=0.500
New Transformer.3065287 phases=1 windings=3 Xhl=1.200 Xht=1.200 Xlt=0.600
~ wdg=1 bus=25448-12087362cf.2 conn=wye Kv=7.9674 Kva=5.0 %R=0.500
~ wdg=2 bus=3065287-12087362v.1.4 conn=wye Kv=0.1100 Kva=5.0 %R=0.500
~ wdg=3 bus=3065287-12087362v.4.2 conn=wye Kv=0.1100 Kva=5.0 %R=0.500
New Transformer.3088510 phases=1 windings=3 Xhl=1.200 Xht=1.200 Xlt=0.600
~ wdg=1 bus=25448-12272739cf.1 conn=wye Kv=7.9674 Kva=5.0 %R=0.500
~ wdg=2 bus=3088510-12272739v.1.4 conn=wye Kv=0.1100 Kva=5.0 %R=0.500
~ wdg=3 bus=3088510-12272739v.4.2 conn=wye Kv=0.1100 Kva=5.0 %R=0.500
New Transformer.3088119 phases=1 windings=3 Xhl=1.200 Xht=1.200 Xlt=0.600
~ wdg=1 bus=25448-12276427.1 conn=wye Kv=7.9674 Kva=10.0 %R=0.500
~ wdg=2 bus=3088119-12276427v.1.4 conn=wye Kv=0.1100 Kva=10.0 %R=0.500
~ wdg=3 bus=3088119-12276427v.4.2 conn=wye Kv=0.1100 Kva=10.0 %R=0.500
New Transformer.2901613 phases=1 windings=3 Xhl=1.200 Xht=1.200 Xlt=0.600
~ wdg=1 bus=25448-11380966.3 conn=wye Kv=7.9674 Kva=5.0 %R=0.500
~ wdg=2 bus=2901613-11380966v.1.4 conn=wye Kv=0.1100 Kva=5.0 %R=0.500
~ wdg=3 bus=2901613-11380966v.4.2 conn=wye Kv=0.1100 Kva=5.0 %R=0.500
New Transformer.2922578 phases=1 windings=3 Xhl=1.200 Xht=1.200 Xlt=0.600
~ wdg=1 bus=25448-11412014.3 conn=wye Kv=7.9674 Kva=5.0 %R=0.500
~ wdg=2 bus=2922578-11412014v.1.4 conn=wye Kv=0.1100 Kva=5.0 %R=0.500
~ wdg=3 bus=2922578-11412014v.4.2 conn=wye Kv=0.1100 Kva=5.0 %R=0.500
New Transformer.3088486 phases=1 windings=3 Xhl=1.200 Xht=1.200 Xlt=0.600
~ wdg=1 bus=25448-12275397.1 conn=wye Kv=7.9674 Kva=5.0 %R=0.500
~ wdg=2 bus=3088486-12275397v.1.4 conn=wye Kv=0.1100 Kva=5.0 %R=0.500
~ wdg=3 bus=3088486-12275397v.4.2 conn=wye Kv=0.1100 Kva=5.0 %R=0.500
New Transformer.3087949 phases=1 windings=3 Xhl=1.200 Xht=1.200 Xlt=0.600
~ wdg=1 bus=25448-12271488.1 conn=wye Kv=7.9674 Kva=10.0 %R=0.500
~ wdg=2 bus=3087949-12271488v.1.4 conn=wye Kv=0.1100 Kva=10.0 %R=0.500
~ wdg=3 bus=3087949-12271488v.4.2 conn=wye Kv=0.1100 Kva=10.0 %R=0.500
New Transformer.3088357 phases=1 windings=3 Xhl=1.200 Xht=1.200 Xlt=0.600
~ wdg=1 bus=25448-12275697cf.1 conn=wye Kv=7.9674 Kva=5.0 %R=0.500
~ wdg=2 bus=3088357-12275697v.1.4 conn=wye Kv=0.1100 Kva=5.0 %R=0.500
~ wdg=3 bus=3088357-12275697v.4.2 conn=wye Kv=0.1100 Kva=5.0 %R=0.500
New Transformer.2897879 phases=1 windings=3 Xhl=1.200 Xht=1.200 Xlt=0.600
~ wdg=1 bus=16088-11373523.1 conn=wye Kv=7.9674 Kva=5.0 %R=0.500
~ wdg=2 bus=2897879-11373523v.1.4 conn=wye Kv=0.1100 Kva=5.0 %R=0.500
~ wdg=3 bus=2897879-11373523v.4.2 conn=wye Kv=0.1100 Kva=5.0 %R=0.500
New Transformer.2897944 phases=1 windings=3 Xhl=1.200 Xht=1.200 Xlt=0.600
~ wdg=1 bus=16088-11373973.1 conn=wye Kv=7.9674 Kva=5.0 %R=0.500
~ wdg=2 bus=2897944-11373973v.1.4 conn=wye Kv=0.1100 Kva=5.0 %R=0.500
~ wdg=3 bus=2897944-11373973v.4.2 conn=wye Kv=0.1100 Kva=5.0 %R=0.500
New Transformer.2901550 phases=1 windings=3 Xhl=1.200 Xht=1.200 Xlt=0.600
~ wdg=1 bus=25448-11380547.3 conn=wye Kv=7.9674 Kva=5.0 %R=0.500
~ wdg=2 bus=2901550-11380547v.1.4 conn=wye Kv=0.1100 Kva=5.0 %R=0.500
~ wdg=3 bus=2901550-11380547v.4.2 conn=wye Kv=0.1100 Kva=5.0 %R=0.500
New Transformer.2938648 phases=1 windings=3 Xhl=1.200 Xht=1.200 Xlt=0.600
~ wdg=1 bus=25448-11449486.2 conn=wye Kv=7.9674 Kva=5.0 %R=0.500
~ wdg=2 bus=2938648-11449486v.1.4 conn=wye Kv=0.1100 Kva=5.0 %R=0.500
~ wdg=3 bus=2938648-11449486v.4.2 conn=wye Kv=0.1100 Kva=5.0 %R=0.500
New Transformer.3028854 phases=1 windings=3 Xhl=1.200 Xht=1.200 Xlt=0.600
~ wdg=1 bus=25448-11889768.3 conn=wye Kv=7.9674 Kva=5.0 %R=0.500
~ wdg=2 bus=3028854-11889768v.1.4 conn=wye Kv=0.1100 Kva=5.0 %R=0.500
~ wdg=3 bus=3028854-11889768v.4.2 conn=wye Kv=0.1100 Kva=5.0 %R=0.500
New Transformer.3087922 phases=1 windings=3 Xhl=1.200 Xht=1.200 Xlt=0.600
~ wdg=1 bus=25448-12271384.1 conn=wye Kv=7.9674 Kva=5.0 %R=0.500
~ wdg=2 bus=3087922-12271384v.1.4 conn=wye Kv=0.1100 Kva=5.0 %R=0.500
~ wdg=3 bus=3087922-12271384v.4.2 conn=wye Kv=0.1100 Kva=5.0 %R=0.500
New Transformer.3087938 phases=1 windings=3 Xhl=1.200 Xht=1.200 Xlt=0.600
~ wdg=1 bus=25448-12271447.1 conn=wye Kv=7.9674 Kva=5.0 %R=0.500
~ wdg=2 bus=3087938-12271447v.1.4 conn=wye Kv=0.1100 Kva=5.0 %R=0.500
~ wdg=3 bus=3087938-12271447v.4.2 conn=wye Kv=0.1100 Kva=5.0 %R=0.500
New Transformer.3088608 phases=1 windings=3 Xhl=1.200 Xht=1.200 Xlt=0.600
~ wdg=1 bus=25448-12272542cf.1 conn=wye Kv=7.9674 Kva=5.0 %R=0.500
~ wdg=2 bus=3088608-12272542v.1.4 conn=wye Kv=0.1100 Kva=5.0 %R=0.500
~ wdg=3 bus=3088608-12272542v.4.2 conn=wye Kv=0.1100 Kva=5.0 %R=0.500
New Transformer.3088115 phases=1 windings=3 Xhl=1.200 Xht=1.200 Xlt=0.600
~ wdg=1 bus=25448-12271701.1 conn=wye Kv=7.9674 Kva=5.0 %R=0.500
~ wdg=2 bus=3088115-12271701v.1.4 conn=wye Kv=0.1100 Kva=5.0 %R=0.500
~ wdg=3 bus=3088115-12271701v.4.2 conn=wye Kv=0.1100 Kva=5.0 %R=0.500
New Transformer.3090979 phases=1 windings=3 Xhl=1.200 Xht=1.200 Xlt=0.600
~ wdg=1 bus=25448-12294125.1 conn=wye Kv=7.9674 Kva=5.0 %R=0.500
~ wdg=2 bus=3090979-12294125v.1.4 conn=wye Kv=0.1100 Kva=5.0 %R=0.500
~ wdg=3 bus=3090979-12294125v.4.2 conn=wye Kv=0.1100 Kva=5.0 %R=0.500
New Transformer.2901533 phases=1 windings=3 Xhl=1.200 Xht=1.200 Xlt=0.600
~ wdg=1 bus=25448-11380398.3 conn=wye Kv=7.9674 Kva=5.0 %R=0.500
~ wdg=2 bus=2901533-11380398v.1.4 conn=wye Kv=0.1100 Kva=5.0 %R=0.500
~ wdg=3 bus=2901533-11380398v.4.2 conn=wye Kv=0.1100 Kva=5.0 %R=0.500
New Transformer.2922537 phases=1 windings=3 Xhl=1.200 Xht=1.200 Xlt=0.600
~ wdg=1 bus=25448-11411801.3 conn=wye Kv=7.9674 Kva=5.0 %R=0.500
~ wdg=2 bus=2922537-11411801v.1.4 conn=wye Kv=0.1100 Kva=5.0 %R=0.500
~ wdg=3 bus=2922537-11411801v.4.2 conn=wye Kv=0.1100 Kva=5.0 %R=0.500
New Transformer.2922438 phases=1 windings=3 Xhl=1.200 Xht=1.200 Xlt=0.600
~ wdg=1 bus=25448-11412240.3 conn=wye Kv=7.9674 Kva=5.0 %R=0.500
~ wdg=2 bus=2922438-11412240v.1.4 conn=wye Kv=0.1100 Kva=5.0 %R=0.500
~ wdg=3 bus=2922438-11412240v.4.2 conn=wye Kv=0.1100 Kva=5.0 %R=0.500
New Transformer.2935956 phases=1 windings=3 Xhl=1.200 Xht=1.200 Xlt=0.600
~ wdg=1 bus=25448-11438405.2 conn=wye Kv=7.9674 Kva=5.0 %R=0.500
~ wdg=2 bus=2935956-11438405v.1.4 conn=wye Kv=0.1100 Kva=5.0 %R=0.500
~ wdg=3 bus=2935956-11438405v.4.2 conn=wye Kv=0.1100 Kva=5.0 %R=0.500
New Transformer.2935959 phases=1 windings=3 Xhl=1.200 Xht=1.200 Xlt=0.600
~ wdg=1 bus=25448-11438415.2 conn=wye Kv=7.9674 Kva=5.0 %R=0.500
~ wdg=2 bus=2935959-11438415v.1.4 conn=wye Kv=0.1100 Kva=5.0 %R=0.500
...